function mpc = group_10_casefile
%GROUP_10_CASEFILE -- Written By Brendan Greeve, Dylan Hang,  Venu Soma
%% MATPOWER Case Format : Version 2
mpc.version = '2';

%%-----  Power Flow Data  -----%%
%% system MVA base
mpc.baseMVA = 100;

%% bus data
%	bus_i	type	Pd	Qd	Gs	Bs	area	Vm	Va	baseKV	zone	Vmax	Vmin
mpc.bus = [
	1	3	0	0	0	0	1	1.0450	0	345	1	1.1	0.9; %Slack Bus
	2	2	0	0	0	0	1	0.9800	0	345	1	1.1	0.9; % Start Generator Buses
	3	2	0	0	0	0	1	0.9830	0	345	1	1.1	0.9;
	4	2	0	0	0	0	1	0.9970	0	345	1	1.1	0.9;
	5	2	0	0	0	0	1	1.0110	0	345	1	1.1	0.9;
	6	2	0	0	0	0	1	1.0500	0	345	1	1.1	0.9;
	7	2	0	0	0	0	1	1.0630	0	345	1	1.1	0.9;
	8	2	0	0	0	0	1	1.0300	0	345	1	1.1	0.9;
	9	2	0	0	0	0	1	1.0300	0	345	1	1.1	0.9;
    10	2	0	0	0	0	1	1.0250	0	345	1	1.1	0.9;
    11	2	0	0	0	0	1	1.0100	0	345	1	1.1	0.9;
	12	2	0	0	0	0	1	1.0156	0	345	1	1.1	0.9;
	13	2	0	0	0	0	1	1.0110	0	345	1	1.1	0.9;
	14	2	0	0	0	0	1	1.0000	0	345	1	1.1	0.9;
	15	2	0	0	0	0	1	1.0000	0	345	1	1.1	0.9;
	16	2	0	0	0	0	1	1.0000	0	345	1	1.1	0.9; % End Generator Buses
	17	1	60.00	3.0000	0	0	1	1	0	345	1	1.1	0.9; %Start Load Buses
	18	1	24.70	1.2300	0	0	1	1	0	345	1	1.1	0.9;
	19	1	0	0	0	0	1	1	0	345	1	1.1	0.9;
    20	1	6.80	1.0300	0	0	1	1	0	345	1	1.1	0.9;
   	21	1	2.74	1.1500	0	0	1	1	0	345	1	1.1	0.9;
	22	1	0	0	0	0	1	1	0	345	1	1.1	0.9;
	23	1	2.48	0.8500	0	0	1	1	0	345	1	1.1	0.9;
	24	1	3.09	-0.9200	0	0	1	1	0	345	1	1.1	0.9;
	25	1	2.24	0.4700	0	0	1	1	0	345	1	1.1	0.9;
	26	1	1.39	0.1700	0	0	1	1	0	345	1	1.1	0.9;
	27	1	2.81	0.7600	0	0	1	1 	0	345	1	1.1	0.9;
	28	1	2.06	0.2800	0	0	1	1	0	345	1	1.1	0.9;
	29	1	2.84	0.2700	0	0	1	1	0	345	1	1.1	0.9;
    30	1	0	0	0	0	1	1	0	345	1	1.1	0.9;
    31	1	0	0	0	0	1	1	0	345	1	1.1	0.9;
	32	1	0	0	0	0	1	1	0	345	1	1.1	0.9;
	33	1	1.12	0	0	0	1	1	0	345	1	1.1	0.9;
	34	1	0	0	0	0	1	1	0	345	1	1.1	0.9;
	35	1	0	0	0	0	1	1	0	345	1	1.1	0.9;
	36	1	1.02	-0.1946	0	0	1	1	0	345	1	1.1	0.9;
	37	1	0	0	0	0	1	1	0	345	1	1.1	0.9;
	38	1	0	0	0	0	1	1	0	345	1	1.1	0.9;
	39	1	2.67	0.1260	0	0	1	1	0	345	1	1.1	0.9;
    40	1	0.6563	0.2353	0	0	1	1	0	345	1	1.1	0.9;
    41	1	10.00	2.5000	0	0	1	1	0	345	1	1.1	0.9;
	42	1	11.50	2.5000	0	0	1	1	0	345	1	1.1	0.9;
	43	1	0	0	0	0	1	1	0	345	1	1.1	0.9;
	44	1	2.6755	0.0484	0	0	1	1	0	345	1	1.1	0.9;
	45	1	2.08	0.2100	0	0	1	1	0	345	1	1.1	0.9;
	46	1	1.507	0.2850	0	0	1	1	0	345	1	1.1	0.9;
	47	1	2.0312	0.3259	0	0	1	1	0	345	1	1.1	0.9;
	48	1	2.412	0.0220	0	0	1	1	0	345	1	1.1	0.9;
	49	1	1.64	0.2900	0	0	1	1	0	345	1	1.1	0.9;
    50	1	1.00	-1.4700	0	0	1	1	0	345	1	1.1	0.9;
   	51	1	3.37	-1.2200	0	0	1	1	0	345	1	1.1	0.9;
	52	1	1.58	0.3000	0	0	1	1	0	345	1	1.1	0.9;
	53	1	2.527	1.1856	0	0	1	1	0	345	1	1.1	0.9;
	54	1	0	0	0	0	1	1	0	345	1	1.1	0.9;
	55	1	3.22	0.0200	0	0	1	1	0	345	1	1.1	0.9;
	56	1	2.00	0.7360	0	0	1	1	0	345	1	1.1	0.9;
	57	1	0	0	0	0	1	1	0	345	1	1.1	0.9;
	58	1	0	0	0	0	1	1	0	345	1	1.1	0.9;
	59	1	2.34	0.8400	0	0	1	1	0	345	1	1.1	0.9;
    60	1	2.088	0.7080	0	0	1	1	0	345	1	1.1	0.9;
   	61	1	1.04	1.2500	0	0	1	1	0	345	1	1.1	0.9;
	62	1	0	0	0	0	1	1	0	345	1	1.1	0.9;
	63	1	0	0	0	0	1	1	0	345	1	1.1	0.9;
	64	1	0.09	0.8800	0	0	1	1	0	345	1	1.1	0.9;
	65	1	0	0	0	0	1	1	0	345	1	1.1	0.9;
	66	1	0	0	0	0	1	1	0	345	1	1.1	0.9;
	67	1	3.20	1.5300	0	0	1	1	0	345	1	1.1	0.9;
	68	1	3.29	0.3200	0	0	1	1	0	345	1	1.1	0.9;
	69	1	0	0	0	0	1	1	0	345	1	1.1	0.9; %End Load Buses
];

%% generator data
%	bus	Pg	Qg	Qmax	Qmin	Vg	mBase	status	Pmax	Pmin	Pc1	Pc2	Qc1min	Qc1max	Qc2min	Qc2max	ramp_agc	ramp_10	ramp_30	ramp_q	apf
mpc.gen = [
	1	2.50	0	300	-300	1.04500	100	1	250	10	0	0	0	0	0	0	0	0	0	0	0;
	2	5.45	0	300	-300	0.9800	100	1	300	10	0	0	0	0	0	0	0	0	0	0	0;
	3	6.50	0	300	-300	0.9830	100	1	270	10	0	0	0	0	0	0	0	0	0	0	0;
    4	6.32	0	300	-300	0.9970	100	1	250	10	0	0	0	0	0	0	0	0	0	0	0;
	5	5.05	0	300	-300	1.0110	100	1	300	10	0	0	0	0	0	0	0	0	0	0	0;
	6	7.00	0	300	-300	1.0500	100	1	270	10	0	0	0	0	0	0	0	0	0	0	0;
    7	5.60	0	300	-300	1.0630	100	1	250	10	0	0	0	0	0	0	0	0	0	0	0;
	8	5.40	0	300	-300	1.0300	100	1	300	10	0	0	0	0	0	0	0	0	0	0	0;
	9	8.00	0	300	-300	1.0250	100	1	270	10	0	0	0	0	0	0	0	0	0	0	0;
    10	5.00	0	300	-300	1.0100	100	1	250	10	0	0	0	0	0	0	0	0	0	0	0;
    11	10.00	0	300	-300	1.000	100	1	300	10	0	0	0	0	0	0	0	0	0	0	0;
	12	13.50	0	300	-300	1.0156	100	1	300	10	0	0	0	0	0	0	0	0	0	0	0;
	13	35.91	0	300	-300	1.0110	100	1	270	10	0	0	0	0	0	0	0	0	0	0	0;
    14	17.85	0	300	-300	1.0000	100	1	250	10	0	0	0	0	0	0	0	0	0	0	0;
	15	10.00	0	300	-300	1.0000	100	1	300	10	0	0	0	0	0	0	0	0	0	0	0;
	16	40.00	0	300	-300	1.0000	100	1	270	10	0	0	0	0	0	0	0	0	0	0	0;
];

%% branch data
%	fbus	tbus	r	x	b	rateA	rateB	rateC	ratio	angle	status	angmin	angmax
mpc.branch = [
	54	1	0	0.0181	0	250	250	250	1.025	0	1	-360	360;
	58	2	0	0.025	0	250	250	250	1.07	0	1	-360	360;
	62	3	0	0.02	0	300	300	300	1.07	0	1	-360	360;
	19	4	0.0007	0.0142	0	250	250	250	1.07	0	1	-360	360;
	20	5	0.0009	0.018	0	250	250	250	1.009	0	1	-360	360;
	22	6	0	0.0143	0	150	150	150	1.025	0	1	-360	360;
	23	7	0.0005	0.0272	0	250	250	250	0	0	1	-360	360;
	25	8	0.0006	0.0232	0	250	250	250	1.025	0	1	-360	360;
	29	9	0.0008	0.0156	0	250	250	250	1.025	0	1	-360	360;
	31	10	0	0.026	0	250	250	250	1.04	0	1	-360	360;
	32	11	0	0.013	0	300	300	300	1.04	0	1	-360	360;
	36	12	0	0.0075	0	300	300	300	1.04	0	1	-360	360;
	17	13	0	0.0033	0	270	270	270	1.04	0	1	-360	360;
	41	14	0	0.0015	0	250	250	250	1	0	1	-360	360;
	42	15	0	0.0015	0	300	300	300	1	0	1	-360	360;
	18	16	0	0.003	0	270	270	270	1	0	1	-360	360;
	36	17	0.0005	0.0045	0.32	250	250	250	0	0	1	-360	360;
	49	18	0.0076	0.1141	1.16	250	250	250	0	0	1	-360	360;
	68	19	0.0016	0.0195	0.304	250	250	250	1	0	1	-360	360;
	19	20	0.0007	0.0138	0	250	250	250	1.06	0	1	-360	360;
	68	21	0.0008	0.0135	0.2548	250	250	250	0	0	1	-360	360;
	21	22	0.0008	0.014	0.2565	250	250	250	0	0	1	-360	360;
	22	23	0.0006	0.0096	0.1846	250	250	250	0	0	1	-360	360;
	23	24	0.0022	0.035	0.361	250	250	250	0	0	1	-360	360;
	68	24	0.0003	0.0059	0.068	250	250	250	0	0	1	-360	360;
	54	25	0.007	0.0086	0.146	250	250	250	0	0	1	-360	360;
	25	26	0.0032	0.0323	0.531	250	250	250	0	0	1	-360	360;
	37	27	0.0013	0.0173	0.3216	250	250	250	0	0	1	-360	360;
	26	27	0.0014	0.0147	0.2396	250	250	250	0	0	1	-360	360;
	26	28	0.0043	0.0474	0.7802	250	250	250	0	0	1	-360	360;
	26	29	0.0057	0.0625	1.029	250	250	250	0	0	1	-360	360;
	28	29	0.0014	0.0151	0.249	250	250	250	0	0	1	-360	360;
	53	30	0.0008	0.0074	0.48	250	250	250	0	0	1	-360	360;
	61	30	0.0019	0.0183	0.29	250	250	250	0	0	1	-360	360;
	30	31	0.0013	0.0187	0.333	250	250	250	0	0	1	-360	360;
	53	31	0.0016	0.0163	0.25	250	250	250	0	0	1	-360	360;
	30	32	0.0024	0.0288	0.488	250	250	250	0	0	1	-360	360;
	32	33	0.0008	0.0099	0.168	250	250	250	0	0	1	-360	360;
	33	34	0.0011	0.0157	0.202	250	250	250	0	0	1	-360	360;
	35	34	0.0001	0.0074	0	250	250	250	0.946	0	1	-360	360;
	34	36	0.0033	0.0111	1.45	250	250	250	0	0	1	-360	360;
	61	36	0.0022	0.0196	0.34	250	250	250	0	0	1	-360	360;
	68	37	0.0007	0.0089	0.1342	250	250	250	0	0	1	-360	360;
	31	38	0.0011	0.0147	0.247	250	250	250	0	0	1	-360	360;
	33	38	0.0036	0.0444	0.693	250	250	250	0	0	1	-360	360;
	41	40	0.006	0.084	3.15	250	250	250	0	0	1	-360	360;
	48	40	0.002	0.022	1.28	250	250	250	0	0	1	-360	360;
	42	41	0.004	0.06	2.25	250	250	250	0	0	1	-360	360;
	18	42	0.004	0.006	2.25	250	250	250	0	0	1	-360	360;
	17	43	0.0005	0.0276	0	250	250	250	0	0	1	-360	360;
	39	44	0	0.0411	0	250	250	250	0	0	1	-360	360;
	43	44	0.0001	0.0011	0	250	250	250	0	0	1	-360	360;
	35	45	0.0007	0.0175	1.39	250	250	250	0	0	1	-360	360;
	39	45	0	0.0839	0	250	250	250	0	0	1	-360	360;
	44	45	0.0025	0.073	0	250	250	250	0	0	1	-360	360;
	38	46	0.0022	0.0284	0.43	250	250	250	0	0	1	-360	360;
	53	47	0.0013	0.0188	1.31	250	250	250	0	0	1	-360	360;
	47	48	0.0025	0.0268	0.4	250	250	250	0	0	1	-360	360;
	46	49	0.0018	0.0274	0.27	250	250	250	0	0	1	-360	360;
	45	51	0.0004	0.0105	0.72	250	250	250	0	0	1	-360	360;
	50	51	0.0009	0.0221	1.62	250	250	250	0	0	1	-360	360;
	37	52	0.0007	0.0082	0.1319	250	250	250	0	0	1	-360	360;
	55	52	0.0011	0.0133	0.2138	250	250	250	0	0	1	-360	360;
	53	54	0.0035	0.0411	0.6987	250	250	250	0	0	1	-360	360;
	54	55	0.0013	0.0151	0.2572	250	250	250	0	0	1	-360	360;
	55	56	0.0013	0.0213	0.2214	250	250	250	0	0	1	-360	360;
	56	57	0.0008	0.0128	0.1342	250	250	250	0	0	1	-360	360;
	57	58	0.0002	0.0026	0.0434	250	250	250	0	0	1	-360	360;
	59	60	0.0004	0.0046	0.078	250	250	250	0	0	1	-360	360;
	60	61	0.0023	0.0363	0.3804	250	250	250	0	0	1	-360	360;
	58	63	0.0007	0.0082	0.1389	250	250	250	0	0	1	-360	360;
	62	63	0.0004	0.0043	0.0729	250	250	250	0	0	1	-360	360;
	64	63	0.0016	0.0435	0	250	250	250	1.06	0	1	-360	360;
	62	65	0.0004	0.0043	0.0729	250	250	250	0	0	1	-360	360;
	64	65	0.0016	0.0435	0	250	250	250	1.06	0	1	-360	360;
	65	66	0.0009	0.0101	0.1723	250	250	250	0	0	1	-360	360;
	66	67	0.0018	0.0217	0.366	250	250	250	0	0	1	-360	360;
	67	68	0.0009	0.0094	0.171	250	250	250	0	0	1	-360	360;
	53	27	0.032	0.32	0.41	250	250	250	1	0	1	-360	360;
	69	18	0.0006	0.0144	1.03	250	250	250	0	0	1	-360	360;
	50	69	0.0006	0.0144	1.03	250	250	250	0	0	1	-360	360;
];

%%-----  OPF Data  -----%%
%% generator cost data
%	1	startup	shutdown	n	x1	y1	...	xn	yn
%	2	startup	shutdown	n	c(n-1)	...	c0
mpc.gencost = [
	2	1500	0	3	0.11	5	150;
	2	2000	0	3	0.085	1.2	600;
	2	3000	0	3	0.1225	1	335;
];